400
Copper fcc 10x10x10 unit cells
Cu 0.0 0.0 0.0
Cu 1.80745 1.80745 0.0
Cu 0.0 1.80745 1.80745
Cu 1.80745 0.0 1.80745
Cu 0.0 3.6149 0.0
Cu 1.80745 5.42235 0.0
Cu 0.0 5.42235 1.80745
Cu 1.80745 3.6149 1.80745
Cu 0.0 7.2298 0.0
Cu 1.80745 9.03725 0.0
Cu 0.0 9.03725 1.80745
Cu 1.80745 7.2298 1.80745
Cu 0.0 10.8447 0.0
Cu 1.80745 12.652149999999999 0.0
Cu 0.0 12.652149999999999 1.80745
Cu 1.80745 10.8447 1.80745
Cu 0.0 14.4596 0.0
Cu 1.80745 16.26705 0.0
Cu 0.0 16.26705 1.80745
Cu 1.80745 14.4596 1.80745
Cu 0.0 18.0745 0.0
Cu 1.80745 19.88195 0.0
Cu 0.0 19.88195 1.80745
Cu 1.80745 18.0745 1.80745
Cu 0.0 21.6894 0.0
Cu 1.80745 23.49685 0.0
Cu 0.0 23.49685 1.80745
Cu 1.80745 21.6894 1.80745
Cu 0.0 25.3043 0.0
Cu 1.80745 27.11175 0.0
Cu 0.0 27.11175 1.80745
Cu 1.80745 25.3043 1.80745
Cu 0.0 28.9192 0.0
Cu 1.80745 30.72665 0.0
Cu 0.0 30.72665 1.80745
Cu 1.80745 28.9192 1.80745
Cu 0.0 32.5341 0.0
Cu 1.80745 34.341550000000005 0.0
Cu 0.0 34.341550000000005 1.80745
Cu 1.80745 32.5341 1.80745
Cu 3.6149 0.0 0.0
Cu 5.42235 1.80745 0.0
Cu 3.6149 1.80745 1.80745
Cu 5.42235 0.0 1.80745
Cu 3.6149 3.6149 0.0
Cu 5.42235 5.42235 0.0
Cu 3.6149 5.42235 1.80745
Cu 5.42235 3.6149 1.80745
Cu 3.6149 7.2298 0.0
Cu 5.42235 9.03725 0.0
Cu 3.6149 9.03725 1.80745
Cu 5.42235 7.2298 1.80745
Cu 3.6149 10.8447 0.0
Cu 5.42235 12.652149999999999 0.0
Cu 3.6149 12.652149999999999 1.80745
Cu 5.42235 10.8447 1.80745
Cu 3.6149 14.4596 0.0
Cu 5.42235 16.26705 0.0
Cu 3.6149 16.26705 1.80745
Cu 5.42235 14.4596 1.80745
Cu 3.6149 18.0745 0.0
Cu 5.42235 19.88195 0.0
Cu 3.6149 19.88195 1.80745
Cu 5.42235 18.0745 1.80745
Cu 3.6149 21.6894 0.0
Cu 5.42235 23.49685 0.0
Cu 3.6149 23.49685 1.80745
Cu 5.42235 21.6894 1.80745
Cu 3.6149 25.3043 0.0
Cu 5.42235 27.11175 0.0
Cu 3.6149 27.11175 1.80745
Cu 5.42235 25.3043 1.80745
Cu 3.6149 28.9192 0.0
Cu 5.42235 30.72665 0.0
Cu 3.6149 30.72665 1.80745
Cu 5.42235 28.9192 1.80745
Cu 3.6149 32.5341 0.0
Cu 5.42235 34.341550000000005 0.0
Cu 3.6149 34.341550000000005 1.80745
Cu 5.42235 32.5341 1.80745
Cu 7.2298 0.0 0.0
Cu 9.03725 1.80745 0.0
Cu 7.2298 1.80745 1.80745
Cu 9.03725 0.0 1.80745
Cu 7.2298 3.6149 0.0
Cu 9.03725 5.42235 0.0
Cu 7.2298 5.42235 1.80745
Cu 9.03725 3.6149 1.80745
Cu 7.2298 7.2298 0.0
Cu 9.03725 9.03725 0.0
Cu 7.2298 9.03725 1.80745
Cu 9.03725 7.2298 1.80745
Cu 7.2298 10.8447 0.0
Cu 9.03725 12.652149999999999 0.0
Cu 7.2298 12.652149999999999 1.80745
Cu 9.03725 10.8447 1.80745
Cu 7.2298 14.4596 0.0
Cu 9.03725 16.26705 0.0
Cu 7.2298 16.26705 1.80745
Cu 9.03725 14.4596 1.80745
Cu 7.2298 18.0745 0.0
Cu 9.03725 19.88195 0.0
Cu 7.2298 19.88195 1.80745
Cu 9.03725 18.0745 1.80745
Cu 7.2298 21.6894 0.0
Cu 9.03725 23.49685 0.0
Cu 7.2298 23.49685 1.80745
Cu 9.03725 21.6894 1.80745
Cu 7.2298 25.3043 0.0
Cu 9.03725 27.11175 0.0
Cu 7.2298 27.11175 1.80745
Cu 9.03725 25.3043 1.80745
Cu 7.2298 28.9192 0.0
Cu 9.03725 30.72665 0.0
Cu 7.2298 30.72665 1.80745
Cu 9.03725 28.9192 1.80745
Cu 7.2298 32.5341 0.0
Cu 9.03725 34.341550000000005 0.0
Cu 7.2298 34.341550000000005 1.80745
Cu 9.03725 32.5341 1.80745
Cu 10.8447 0.0 0.0
Cu 12.652149999999999 1.80745 0.0
Cu 10.8447 1.80745 1.80745
Cu 12.652149999999999 0.0 1.80745
Cu 10.8447 3.6149 0.0
Cu 12.652149999999999 5.42235 0.0
Cu 10.8447 5.42235 1.80745
Cu 12.652149999999999 3.6149 1.80745
Cu 10.8447 7.2298 0.0
Cu 12.652149999999999 9.03725 0.0
Cu 10.8447 9.03725 1.80745
Cu 12.652149999999999 7.2298 1.80745
Cu 10.8447 10.8447 0.0
Cu 12.652149999999999 12.652149999999999 0.0
Cu 10.8447 12.652149999999999 1.80745
Cu 12.652149999999999 10.8447 1.80745
Cu 10.8447 14.4596 0.0
Cu 12.652149999999999 16.26705 0.0
Cu 10.8447 16.26705 1.80745
Cu 12.652149999999999 14.4596 1.80745
Cu 10.8447 18.0745 0.0
Cu 12.652149999999999 19.88195 0.0
Cu 10.8447 19.88195 1.80745
Cu 12.652149999999999 18.0745 1.80745
Cu 10.8447 21.6894 0.0
Cu 12.652149999999999 23.49685 0.0
Cu 10.8447 23.49685 1.80745
Cu 12.652149999999999 21.6894 1.80745
Cu 10.8447 25.3043 0.0
Cu 12.652149999999999 27.11175 0.0
Cu 10.8447 27.11175 1.80745
Cu 12.652149999999999 25.3043 1.80745
Cu 10.8447 28.9192 0.0
Cu 12.652149999999999 30.72665 0.0
Cu 10.8447 30.72665 1.80745
Cu 12.652149999999999 28.9192 1.80745
Cu 10.8447 32.5341 0.0
Cu 12.652149999999999 34.341550000000005 0.0
Cu 10.8447 34.341550000000005 1.80745
Cu 12.652149999999999 32.5341 1.80745
Cu 14.4596 0.0 0.0
Cu 16.26705 1.80745 0.0
Cu 14.4596 1.80745 1.80745
Cu 16.26705 0.0 1.80745
Cu 14.4596 3.6149 0.0
Cu 16.26705 5.42235 0.0
Cu 14.4596 5.42235 1.80745
Cu 16.26705 3.6149 1.80745
Cu 14.4596 7.2298 0.0
Cu 16.26705 9.03725 0.0
Cu 14.4596 9.03725 1.80745
Cu 16.26705 7.2298 1.80745
Cu 14.4596 10.8447 0.0
Cu 16.26705 12.652149999999999 0.0
Cu 14.4596 12.652149999999999 1.80745
Cu 16.26705 10.8447 1.80745
Cu 14.4596 14.4596 0.0
Cu 16.26705 16.26705 0.0
Cu 14.4596 16.26705 1.80745
Cu 16.26705 14.4596 1.80745
Cu 14.4596 18.0745 0.0
Cu 16.26705 19.88195 0.0
Cu 14.4596 19.88195 1.80745
Cu 16.26705 18.0745 1.80745
Cu 14.4596 21.6894 0.0
Cu 16.26705 23.49685 0.0
Cu 14.4596 23.49685 1.80745
Cu 16.26705 21.6894 1.80745
Cu 14.4596 25.3043 0.0
Cu 16.26705 27.11175 0.0
Cu 14.4596 27.11175 1.80745
Cu 16.26705 25.3043 1.80745
Cu 14.4596 28.9192 0.0
Cu 16.26705 30.72665 0.0
Cu 14.4596 30.72665 1.80745
Cu 16.26705 28.9192 1.80745
Cu 14.4596 32.5341 0.0
Cu 16.26705 34.341550000000005 0.0
Cu 14.4596 34.341550000000005 1.80745
Cu 16.26705 32.5341 1.80745
Cu 18.0745 0.0 0.0
Cu 19.88195 1.80745 0.0
Cu 18.0745 1.80745 1.80745
Cu 19.88195 0.0 1.80745
Cu 18.0745 3.6149 0.0
Cu 19.88195 5.42235 0.0
Cu 18.0745 5.42235 1.80745
Cu 19.88195 3.6149 1.80745
Cu 18.0745 7.2298 0.0
Cu 19.88195 9.03725 0.0
Cu 18.0745 9.03725 1.80745
Cu 19.88195 7.2298 1.80745
Cu 18.0745 10.8447 0.0
Cu 19.88195 12.652149999999999 0.0
Cu 18.0745 12.652149999999999 1.80745
Cu 19.88195 10.8447 1.80745
Cu 18.0745 14.4596 0.0
Cu 19.88195 16.26705 0.0
Cu 18.0745 16.26705 1.80745
Cu 19.88195 14.4596 1.80745
Cu 18.0745 18.0745 0.0
Cu 19.88195 19.88195 0.0
Cu 18.0745 19.88195 1.80745
Cu 19.88195 18.0745 1.80745
Cu 18.0745 21.6894 0.0
Cu 19.88195 23.49685 0.0
Cu 18.0745 23.49685 1.80745
Cu 19.88195 21.6894 1.80745
Cu 18.0745 25.3043 0.0
Cu 19.88195 27.11175 0.0
Cu 18.0745 27.11175 1.80745
Cu 19.88195 25.3043 1.80745
Cu 18.0745 28.9192 0.0
Cu 19.88195 30.72665 0.0
Cu 18.0745 30.72665 1.80745
Cu 19.88195 28.9192 1.80745
Cu 18.0745 32.5341 0.0
Cu 19.88195 34.341550000000005 0.0
Cu 18.0745 34.341550000000005 1.80745
Cu 19.88195 32.5341 1.80745
Cu 21.6894 0.0 0.0
Cu 23.49685 1.80745 0.0
Cu 21.6894 1.80745 1.80745
Cu 23.49685 0.0 1.80745
Cu 21.6894 3.6149 0.0
Cu 23.49685 5.42235 0.0
Cu 21.6894 5.42235 1.80745
Cu 23.49685 3.6149 1.80745
Cu 21.6894 7.2298 0.0
Cu 23.49685 9.03725 0.0
Cu 21.6894 9.03725 1.80745
Cu 23.49685 7.2298 1.80745
Cu 21.6894 10.8447 0.0
Cu 23.49685 12.652149999999999 0.0
Cu 21.6894 12.652149999999999 1.80745
Cu 23.49685 10.8447 1.80745
Cu 21.6894 14.4596 0.0
Cu 23.49685 16.26705 0.0
Cu 21.6894 16.26705 1.80745
Cu 23.49685 14.4596 1.80745
Cu 21.6894 18.0745 0.0
Cu 23.49685 19.88195 0.0
Cu 21.6894 19.88195 1.80745
Cu 23.49685 18.0745 1.80745
Cu 21.6894 21.6894 0.0
Cu 23.49685 23.49685 0.0
Cu 21.6894 23.49685 1.80745
Cu 23.49685 21.6894 1.80745
Cu 21.6894 25.3043 0.0
Cu 23.49685 27.11175 0.0
Cu 21.6894 27.11175 1.80745
Cu 23.49685 25.3043 1.80745
Cu 21.6894 28.9192 0.0
Cu 23.49685 30.72665 0.0
Cu 21.6894 30.72665 1.80745
Cu 23.49685 28.9192 1.80745
Cu 21.6894 32.5341 0.0
Cu 23.49685 34.341550000000005 0.0
Cu 21.6894 34.341550000000005 1.80745
Cu 23.49685 32.5341 1.80745
Cu 25.3043 0.0 0.0
Cu 27.11175 1.80745 0.0
Cu 25.3043 1.80745 1.80745
Cu 27.11175 0.0 1.80745
Cu 25.3043 3.6149 0.0
Cu 27.11175 5.42235 0.0
Cu 25.3043 5.42235 1.80745
Cu 27.11175 3.6149 1.80745
Cu 25.3043 7.2298 0.0
Cu 27.11175 9.03725 0.0
Cu 25.3043 9.03725 1.80745
Cu 27.11175 7.2298 1.80745
Cu 25.3043 10.8447 0.0
Cu 27.11175 12.652149999999999 0.0
Cu 25.3043 12.652149999999999 1.80745
Cu 27.11175 10.8447 1.80745
Cu 25.3043 14.4596 0.0
Cu 27.11175 16.26705 0.0
Cu 25.3043 16.26705 1.80745
Cu 27.11175 14.4596 1.80745
Cu 25.3043 18.0745 0.0
Cu 27.11175 19.88195 0.0
Cu 25.3043 19.88195 1.80745
Cu 27.11175 18.0745 1.80745
Cu 25.3043 21.6894 0.0
Cu 27.11175 23.49685 0.0
Cu 25.3043 23.49685 1.80745
Cu 27.11175 21.6894 1.80745
Cu 25.3043 25.3043 0.0
Cu 27.11175 27.11175 0.0
Cu 25.3043 27.11175 1.80745
Cu 27.11175 25.3043 1.80745
Cu 25.3043 28.9192 0.0
Cu 27.11175 30.72665 0.0
Cu 25.3043 30.72665 1.80745
Cu 27.11175 28.9192 1.80745
Cu 25.3043 32.5341 0.0
Cu 27.11175 34.341550000000005 0.0
Cu 25.3043 34.341550000000005 1.80745
Cu 27.11175 32.5341 1.80745
Cu 28.9192 0.0 0.0
Cu 30.72665 1.80745 0.0
Cu 28.9192 1.80745 1.80745
Cu 30.72665 0.0 1.80745
Cu 28.9192 3.6149 0.0
Cu 30.72665 5.42235 0.0
Cu 28.9192 5.42235 1.80745
Cu 30.72665 3.6149 1.80745
Cu 28.9192 7.2298 0.0
Cu 30.72665 9.03725 0.0
Cu 28.9192 9.03725 1.80745
Cu 30.72665 7.2298 1.80745
Cu 28.9192 10.8447 0.0
Cu 30.72665 12.652149999999999 0.0
Cu 28.9192 12.652149999999999 1.80745
Cu 30.72665 10.8447 1.80745
Cu 28.9192 14.4596 0.0
Cu 30.72665 16.26705 0.0
Cu 28.9192 16.26705 1.80745
Cu 30.72665 14.4596 1.80745
Cu 28.9192 18.0745 0.0
Cu 30.72665 19.88195 0.0
Cu 28.9192 19.88195 1.80745
Cu 30.72665 18.0745 1.80745
Cu 28.9192 21.6894 0.0
Cu 30.72665 23.49685 0.0
Cu 28.9192 23.49685 1.80745
Cu 30.72665 21.6894 1.80745
Cu 28.9192 25.3043 0.0
Cu 30.72665 27.11175 0.0
Cu 28.9192 27.11175 1.80745
Cu 30.72665 25.3043 1.80745
Cu 28.9192 28.9192 0.0
Cu 30.72665 30.72665 0.0
Cu 28.9192 30.72665 1.80745
Cu 30.72665 28.9192 1.80745
Cu 28.9192 32.5341 0.0
Cu 30.72665 34.341550000000005 0.0
Cu 28.9192 34.341550000000005 1.80745
Cu 30.72665 32.5341 1.80745
Cu 32.5341 0.0 0.0
Cu 34.341550000000005 1.80745 0.0
Cu 32.5341 1.80745 1.80745
Cu 34.341550000000005 0.0 1.80745
Cu 32.5341 3.6149 0.0
Cu 34.341550000000005 5.42235 0.0
Cu 32.5341 5.42235 1.80745
Cu 34.341550000000005 3.6149 1.80745
Cu 32.5341 7.2298 0.0
Cu 34.341550000000005 9.03725 0.0
Cu 32.5341 9.03725 1.80745
Cu 34.341550000000005 7.2298 1.80745
Cu 32.5341 10.8447 0.0
Cu 34.341550000000005 12.652149999999999 0.0
Cu 32.5341 12.652149999999999 1.80745
Cu 34.341550000000005 10.8447 1.80745
Cu 32.5341 14.4596 0.0
Cu 34.341550000000005 16.26705 0.0
Cu 32.5341 16.26705 1.80745
Cu 34.341550000000005 14.4596 1.80745
Cu 32.5341 18.0745 0.0
Cu 34.341550000000005 19.88195 0.0
Cu 32.5341 19.88195 1.80745
Cu 34.341550000000005 18.0745 1.80745
Cu 32.5341 21.6894 0.0
Cu 34.341550000000005 23.49685 0.0
Cu 32.5341 23.49685 1.80745
Cu 34.341550000000005 21.6894 1.80745
Cu 32.5341 25.3043 0.0
Cu 34.341550000000005 27.11175 0.0
Cu 32.5341 27.11175 1.80745
Cu 34.341550000000005 25.3043 1.80745
Cu 32.5341 28.9192 0.0
Cu 34.341550000000005 30.72665 0.0
Cu 32.5341 30.72665 1.80745
Cu 34.341550000000005 28.9192 1.80745
Cu 32.5341 32.5341 0.0
Cu 34.341550000000005 34.341550000000005 0.0
Cu 32.5341 34.341550000000005 1.80745
Cu 34.341550000000005 32.5341 1.80745
