200
Zinc hcp 10x10x1 unit cells
Zn 0.0 0.0 0.0
Zn 1.33245 0.7692903661817168 2.4734
Zn 1.33245 2.3078710985451503 0.0
Zn 2.6649 3.077161464726867 2.4734
Zn 2.6649 4.6157421970903005 0.0
Zn 3.99735 5.385032563272017 2.4734
Zn 3.99735 6.923613295635451 0.0
Zn 5.3298 7.692903661817168 2.4734
Zn 5.3298 9.231484394180601 0.0
Zn 6.662249999999999 10.000774760362319 2.4734
Zn 6.662249999999999 11.53935549272575 0.0
Zn 7.994699999999999 12.308645858907468 2.4734
Zn 7.9947 13.847226591270902 0.0
Zn 9.32715 14.616516957452617 2.4734
Zn 9.32715 16.155097689816053 0.0
Zn 10.6596 16.92438805599777 2.4734
Zn 10.6596 18.462968788361202 0.0
Zn 11.992049999999999 19.23225915454292 2.4734
Zn 11.992049999999999 20.77083988690635 0.0
Zn 13.324499999999999 21.54013025308807 2.4734
Zn 2.6649 0.0 0.0
Zn 3.99735 0.7692903661817168 2.4734
Zn 3.99735 2.3078710985451503 0.0
Zn 5.3298 3.077161464726867 2.4734
Zn 5.3298 4.6157421970903005 0.0
Zn 6.662249999999999 5.385032563272017 2.4734
Zn 6.66225 6.923613295635451 0.0
Zn 7.9947 7.692903661817168 2.4734
Zn 7.9947 9.231484394180601 0.0
Zn 9.32715 10.000774760362319 2.4734
Zn 9.32715 11.53935549272575 0.0
Zn 10.6596 12.308645858907468 2.4734
Zn 10.6596 13.847226591270902 0.0
Zn 11.992049999999999 14.616516957452617 2.4734
Zn 11.992049999999999 16.155097689816053 0.0
Zn 13.324499999999999 16.92438805599777 2.4734
Zn 13.324499999999999 18.462968788361202 0.0
Zn 14.656949999999998 19.23225915454292 2.4734
Zn 14.656949999999998 20.77083988690635 0.0
Zn 15.989399999999998 21.54013025308807 2.4734
Zn 5.3298 0.0 0.0
Zn 6.662249999999999 0.7692903661817168 2.4734
Zn 6.662249999999999 2.3078710985451503 0.0
Zn 7.994699999999999 3.077161464726867 2.4734
Zn 7.9947 4.6157421970903005 0.0
Zn 9.32715 5.385032563272017 2.4734
Zn 9.32715 6.923613295635451 0.0
Zn 10.6596 7.692903661817168 2.4734
Zn 10.6596 9.231484394180601 0.0
Zn 11.992049999999999 10.000774760362319 2.4734
Zn 11.992049999999999 11.53935549272575 0.0
Zn 13.324499999999999 12.308645858907468 2.4734
Zn 13.3245 13.847226591270902 0.0
Zn 14.65695 14.616516957452617 2.4734
Zn 14.656949999999998 16.155097689816053 0.0
Zn 15.989399999999998 16.92438805599777 2.4734
Zn 15.9894 18.462968788361202 0.0
Zn 17.32185 19.23225915454292 2.4734
Zn 17.321849999999998 20.77083988690635 0.0
Zn 18.6543 21.54013025308807 2.4734
Zn 7.9947 0.0 0.0
Zn 9.32715 0.7692903661817168 2.4734
Zn 9.32715 2.3078710985451503 0.0
Zn 10.6596 3.077161464726867 2.4734
Zn 10.6596 4.6157421970903005 0.0
Zn 11.992049999999999 5.385032563272017 2.4734
Zn 11.992049999999999 6.923613295635451 0.0
Zn 13.324499999999999 7.692903661817168 2.4734
Zn 13.3245 9.231484394180601 0.0
Zn 14.65695 10.000774760362319 2.4734
Zn 14.656949999999998 11.53935549272575 0.0
Zn 15.989399999999998 12.308645858907468 2.4734
Zn 15.9894 13.847226591270902 0.0
Zn 17.32185 14.616516957452617 2.4734
Zn 17.321849999999998 16.155097689816053 0.0
Zn 18.6543 16.92438805599777 2.4734
Zn 18.6543 18.462968788361202 0.0
Zn 19.98675 19.23225915454292 2.4734
Zn 19.98675 20.77083988690635 0.0
Zn 21.319200000000002 21.54013025308807 2.4734
Zn 10.6596 0.0 0.0
Zn 11.992049999999999 0.7692903661817168 2.4734
Zn 11.992049999999999 2.3078710985451503 0.0
Zn 13.324499999999999 3.077161464726867 2.4734
Zn 13.324499999999999 4.6157421970903005 0.0
Zn 14.656949999999998 5.385032563272017 2.4734
Zn 14.656949999999998 6.923613295635451 0.0
Zn 15.989399999999998 7.692903661817168 2.4734
Zn 15.9894 9.231484394180601 0.0
Zn 17.32185 10.000774760362319 2.4734
Zn 17.321849999999998 11.53935549272575 0.0
Zn 18.6543 12.308645858907468 2.4734
Zn 18.6543 13.847226591270902 0.0
Zn 19.98675 14.616516957452617 2.4734
Zn 19.98675 16.155097689816053 0.0
Zn 21.319200000000002 16.92438805599777 2.4734
Zn 21.3192 18.462968788361202 0.0
Zn 22.65165 19.23225915454292 2.4734
Zn 22.651649999999997 20.77083988690635 0.0
Zn 23.984099999999998 21.54013025308807 2.4734
Zn 13.324499999999999 0.0 0.0
Zn 14.656949999999998 0.7692903661817168 2.4734
Zn 14.656949999999998 2.3078710985451503 0.0
Zn 15.989399999999998 3.077161464726867 2.4734
Zn 15.989399999999998 4.6157421970903005 0.0
Zn 17.321849999999998 5.385032563272017 2.4734
Zn 17.321849999999998 6.923613295635451 0.0
Zn 18.6543 7.692903661817168 2.4734
Zn 18.6543 9.231484394180601 0.0
Zn 19.98675 10.000774760362319 2.4734
Zn 19.986749999999997 11.53935549272575 0.0
Zn 21.3192 12.308645858907468 2.4734
Zn 21.3192 13.847226591270902 0.0
Zn 22.65165 14.616516957452617 2.4734
Zn 22.651649999999997 16.155097689816053 0.0
Zn 23.984099999999998 16.92438805599777 2.4734
Zn 23.984099999999998 18.462968788361202 0.0
Zn 25.31655 19.23225915454292 2.4734
Zn 25.31655 20.77083988690635 0.0
Zn 26.649 21.54013025308807 2.4734
Zn 15.9894 0.0 0.0
Zn 17.32185 0.7692903661817168 2.4734
Zn 17.32185 2.3078710985451503 0.0
Zn 18.654300000000003 3.077161464726867 2.4734
Zn 18.6543 4.6157421970903005 0.0
Zn 19.98675 5.385032563272017 2.4734
Zn 19.98675 6.923613295635451 0.0
Zn 21.319200000000002 7.692903661817168 2.4734
Zn 21.3192 9.231484394180601 0.0
Zn 22.65165 10.000774760362319 2.4734
Zn 22.65165 11.53935549272575 0.0
Zn 23.9841 12.308645858907468 2.4734
Zn 23.984099999999998 13.847226591270902 0.0
Zn 25.31655 14.616516957452617 2.4734
Zn 25.31655 16.155097689816053 0.0
Zn 26.649 16.92438805599777 2.4734
Zn 26.649 18.462968788361202 0.0
Zn 27.981450000000002 19.23225915454292 2.4734
Zn 27.98145 20.77083988690635 0.0
Zn 29.3139 21.54013025308807 2.4734
Zn 18.6543 0.0 0.0
Zn 19.98675 0.7692903661817168 2.4734
Zn 19.98675 2.3078710985451503 0.0
Zn 21.319200000000002 3.077161464726867 2.4734
Zn 21.3192 4.6157421970903005 0.0
Zn 22.65165 5.385032563272017 2.4734
Zn 22.65165 6.923613295635451 0.0
Zn 23.9841 7.692903661817168 2.4734
Zn 23.984099999999998 9.231484394180601 0.0
Zn 25.31655 10.000774760362319 2.4734
Zn 25.31655 11.53935549272575 0.0
Zn 26.649 12.308645858907468 2.4734
Zn 26.649 13.847226591270902 0.0
Zn 27.981450000000002 14.616516957452617 2.4734
Zn 27.98145 16.155097689816053 0.0
Zn 29.3139 16.92438805599777 2.4734
Zn 29.313899999999997 18.462968788361202 0.0
Zn 30.646349999999998 19.23225915454292 2.4734
Zn 30.646349999999998 20.77083988690635 0.0
Zn 31.9788 21.54013025308807 2.4734
Zn 21.3192 0.0 0.0
Zn 22.65165 0.7692903661817168 2.4734
Zn 22.65165 2.3078710985451503 0.0
Zn 23.9841 3.077161464726867 2.4734
Zn 23.984099999999998 4.6157421970903005 0.0
Zn 25.31655 5.385032563272017 2.4734
Zn 25.31655 6.923613295635451 0.0
Zn 26.649 7.692903661817168 2.4734
Zn 26.648999999999997 9.231484394180601 0.0
Zn 27.98145 10.000774760362319 2.4734
Zn 27.98145 11.53935549272575 0.0
Zn 29.3139 12.308645858907468 2.4734
Zn 29.313899999999997 13.847226591270902 0.0
Zn 30.646349999999998 14.616516957452617 2.4734
Zn 30.646349999999998 16.155097689816053 0.0
Zn 31.9788 16.92438805599777 2.4734
Zn 31.9788 18.462968788361202 0.0
Zn 33.31125 19.23225915454292 2.4734
Zn 33.31125 20.77083988690635 0.0
Zn 34.6437 21.54013025308807 2.4734
Zn 23.984099999999998 0.0 0.0
Zn 25.31655 0.7692903661817168 2.4734
Zn 25.31655 2.3078710985451503 0.0
Zn 26.649 3.077161464726867 2.4734
Zn 26.648999999999997 4.6157421970903005 0.0
Zn 27.98145 5.385032563272017 2.4734
Zn 27.98145 6.923613295635451 0.0
Zn 29.3139 7.692903661817168 2.4734
Zn 29.313899999999997 9.231484394180601 0.0
Zn 30.646349999999998 10.000774760362319 2.4734
Zn 30.646349999999998 11.53935549272575 0.0
Zn 31.9788 12.308645858907468 2.4734
Zn 31.9788 13.847226591270902 0.0
Zn 33.31125 14.616516957452617 2.4734
Zn 33.31125 16.155097689816053 0.0
Zn 34.6437 16.92438805599777 2.4734
Zn 34.643699999999995 18.462968788361202 0.0
Zn 35.97615 19.23225915454292 2.4734
Zn 35.97615 20.77083988690635 0.0
Zn 37.3086 21.54013025308807 2.4734
