218
Molecule 1  0.000000
C 11.5647 16.6782  8.4627
C 12.4691 15.7034  8.4556
C 13.9211 16.1190  8.4520
O 14.9841 15.2176  8.4514
O 14.1831 17.3272  8.4558
O 11.9585 14.3504  8.4587
H 11.8747 17.6926  8.4651
H 10.5306 16.4408  8.4700
C 12.8932 13.2555  8.4490
O 13.6362 13.3055  9.4798
O 13.6901 13.2987  7.2604
O 12.1624 12.0275  8.4672
O 12.2163 17.2727 12.1252
C 11.6964 15.9091 11.7782
O 11.2084 14.5325 11.4365
H 15.4292  9.8725  7.6666
O 14.5385 10.0355  8.0655
H 14.0028  9.2041  8.0285
Fe  0.0000  0.0000  0.0000
Fe  1.4332  1.4332  1.4332
Fe  0.0000  2.8665  0.0000
Fe  1.4332  4.2997  1.4332
Fe  0.0000  5.7330  0.0000
Fe  1.4332  7.1663  1.4332
Fe  0.0000  8.5995  0.0000
Fe  1.4332 10.0328  1.4332
Fe  0.0000 11.4660  0.0000
Fe  1.4332 12.8993  1.4332
Fe  0.0000 14.3325  0.0000
Fe  1.4332 15.7657  1.4332
Fe  0.0000 17.1990  0.0000
Fe  1.4332 18.6322  1.4332
Fe  0.0000 20.0655  0.0000
Fe  1.4332 21.4988  1.4332
Fe  0.0000 22.9320  0.0000
Fe  1.4332 24.3652  1.4332
Fe  0.0000 25.7985  0.0000
Fe  1.4332 27.2318  1.4332
Fe  2.8665  0.0000  0.0000
Fe  4.2997  1.4332  1.4332
Fe  2.8665  2.8665  0.0000
Fe  4.2997  4.2997  1.4332
Fe  2.8665  5.7330  0.0000
Fe  4.2997  7.1663  1.4332
Fe  2.8665  8.5995  0.0000
Fe  4.2997 10.0328  1.4332
Fe  2.8665 11.4660  0.0000
Fe  4.2997 12.8993  1.4332
Fe  2.8665 14.3325  0.0000
Fe  4.2997 15.7657  1.4332
Fe  2.8665 17.1990  0.0000
Fe  4.2997 18.6322  1.4332
Fe  2.8665 20.0655  0.0000
Fe  4.2997 21.4988  1.4332
Fe  2.8665 22.9320  0.0000
Fe  4.2997 24.3652  1.4332
Fe  2.8665 25.7985  0.0000
Fe  4.2997 27.2318  1.4332
Fe  5.7330  0.0000  0.0000
Fe  7.1663  1.4332  1.4332
Fe  5.7330  2.8665  0.0000
Fe  7.1663  4.2997  1.4332
Fe  5.7330  5.7330  0.0000
Fe  7.1663  7.1663  1.4332
Fe  5.7330  8.5995  0.0000
Fe  7.1663 10.0328  1.4332
Fe  5.7330 11.4660  0.0000
Fe  7.1663 12.8993  1.4332
Fe  5.7330 14.3325  0.0000
Fe  7.1663 15.7657  1.4332
Fe  5.7330 17.1990  0.0000
Fe  7.1663 18.6322  1.4332
Fe  5.7330 20.0655  0.0000
Fe  7.1663 21.4988  1.4332
Fe  5.7330 22.9320  0.0000
Fe  7.1663 24.3652  1.4332
Fe  5.7330 25.7985  0.0000
Fe  7.1663 27.2318  1.4332
Fe  8.5995  0.0000  0.0000
Fe 10.0328  1.4332  1.4332
Fe  8.5995  2.8665  0.0000
Fe 10.0328  4.2997  1.4332
Fe  8.5995  5.7330  0.0000
Fe 10.0328  7.1663  1.4332
Fe  8.5995  8.5995  0.0000
Fe 10.0328 10.0328  1.4332
Fe  8.5995 11.4660  0.0000
Fe 10.0328 12.8993  1.4332
Fe  8.5995 14.3325  0.0000
Fe 10.0328 15.7657  1.4332
Fe  8.5995 17.1990  0.0000
Fe 10.0328 18.6322  1.4332
Fe  8.5995 20.0655  0.0000
Fe 10.0328 21.4988  1.4332
Fe  8.5995 22.9320  0.0000
Fe 10.0328 24.3652  1.4332
Fe  8.5995 25.7985  0.0000
Fe 10.0328 27.2318  1.4332
Fe 11.4660  0.0000  0.0000
Fe 12.8993  1.4332  1.4332
Fe 11.4660  2.8665  0.0000
Fe 12.8993  4.2997  1.4332
Fe 11.4660  5.7330  0.0000
Fe 12.8993  7.1663  1.4332
Fe 11.4660  8.5995  0.0000
Fe 12.8993 10.0328  1.4332
Fe 11.4660 11.4660  0.0000
Fe 12.8993 12.8993  1.4332
Fe 11.4660 14.3325  0.0000
Fe 12.8993 15.7657  1.4332
Fe 11.4660 17.1990  0.0000
Fe 12.8993 18.6322  1.4332
Fe 11.4660 20.0655  0.0000
Fe 12.8993 21.4988  1.4332
Fe 11.4660 22.9320  0.0000
Fe 12.8993 24.3652  1.4332
Fe 11.4660 25.7985  0.0000
Fe 12.8993 27.2318  1.4332
Fe 14.3325  0.0000  0.0000
Fe 15.7657  1.4332  1.4332
Fe 14.3325  2.8665  0.0000
Fe 15.7657  4.2997  1.4332
Fe 14.3325  5.7330  0.0000
Fe 15.7657  7.1663  1.4332
Fe 14.3325  8.5995  0.0000
Fe 15.7657 10.0328  1.4332
Fe 14.3325 11.4660  0.0000
Fe 15.7657 12.8993  1.4332
Fe 14.3325 14.3325  0.0000
Fe 15.7657 15.7657  1.4332
Fe 14.3325 17.1990  0.0000
Fe 15.7657 18.6322  1.4332
Fe 14.3325 20.0655  0.0000
Fe 15.7657 21.4988  1.4332
Fe 14.3325 22.9320  0.0000
Fe 15.7657 24.3652  1.4332
Fe 14.3325 25.7985  0.0000
Fe 15.7657 27.2318  1.4332
Fe 17.1990  0.0000  0.0000
Fe 18.6322  1.4332  1.4332
Fe 17.1990  2.8665  0.0000
Fe 18.6322  4.2997  1.4332
Fe 17.1990  5.7330  0.0000
Fe 18.6322  7.1663  1.4332
Fe 17.1990  8.5995  0.0000
Fe 18.6322 10.0328  1.4332
Fe 17.1990 11.4660  0.0000
Fe 18.6322 12.8993  1.4332
Fe 17.1990 14.3325  0.0000
Fe 18.6322 15.7657  1.4332
Fe 17.1990 17.1990  0.0000
Fe 18.6322 18.6322  1.4332
Fe 17.1990 20.0655  0.0000
Fe 18.6322 21.4988  1.4332
Fe 17.1990 22.9320  0.0000
Fe 18.6322 24.3652  1.4332
Fe 17.1990 25.7985  0.0000
Fe 18.6322 27.2318  1.4332
Fe 20.0655  0.0000  0.0000
Fe 21.4988  1.4332  1.4332
Fe 20.0655  2.8665  0.0000
Fe 21.4988  4.2997  1.4332
Fe 20.0655  5.7330  0.0000
Fe 21.4988  7.1663  1.4332
Fe 20.0655  8.5995  0.0000
Fe 21.4988 10.0328  1.4332
Fe 20.0655 11.4660  0.0000
Fe 21.4988 12.8993  1.4332
Fe 20.0655 14.3325  0.0000
Fe 21.4988 15.7657  1.4332
Fe 20.0655 17.1990  0.0000
Fe 21.4988 18.6322  1.4332
Fe 20.0655 20.0655  0.0000
Fe 21.4988 21.4988  1.4332
Fe 20.0655 22.9320  0.0000
Fe 21.4988 24.3652  1.4332
Fe 20.0655 25.7985  0.0000
Fe 21.4988 27.2318  1.4332
Fe 22.9320  0.0000  0.0000
Fe 24.3652  1.4332  1.4332
Fe 22.9320  2.8665  0.0000
Fe 24.3652  4.2997  1.4332
Fe 22.9320  5.7330  0.0000
Fe 24.3652  7.1663  1.4332
Fe 22.9320  8.5995  0.0000
Fe 24.3652 10.0328  1.4332
Fe 22.9320 11.4660  0.0000
Fe 24.3652 12.8993  1.4332
Fe 22.9320 14.3325  0.0000
Fe 24.3652 15.7657  1.4332
Fe 22.9320 17.1990  0.0000
Fe 24.3652 18.6322  1.4332
Fe 22.9320 20.0655  0.0000
Fe 24.3652 21.4988  1.4332
Fe 22.9320 22.9320  0.0000
Fe 24.3652 24.3652  1.4332
Fe 22.9320 25.7985  0.0000
Fe 24.3652 27.2318  1.4332
Fe 25.7985  0.0000  0.0000
Fe 27.2318  1.4332  1.4332
Fe 25.7985  2.8665  0.0000
Fe 27.2318  4.2997  1.4332
Fe 25.7985  5.7330  0.0000
Fe 27.2318  7.1663  1.4332
Fe 25.7985  8.5995  0.0000
Fe 27.2318 10.0328  1.4332
Fe 25.7985 11.4660  0.0000
Fe 27.2318 12.8993  1.4332
Fe 25.7985 14.3325  0.0000
Fe 27.2318 15.7657  1.4332
Fe 25.7985 17.1990  0.0000
Fe 27.2318 18.6322  1.4332
Fe 25.7985 20.0655  0.0000
Fe 27.2318 21.4988  1.4332
Fe 25.7985 22.9320  0.0000
Fe 27.2318 24.3652  1.4332
Fe 25.7985 25.7985  0.0000
Fe 27.2318 27.2318  1.4332
