18
Molecule 1  0.000000
C -8.6364  1.9779 -0.5221
C -7.7321  1.0032 -0.5293
C -6.2800  1.4187 -0.5328
O -5.2170  0.5174 -0.5334
O -6.0181  2.6270 -0.5290
O -8.2426 -0.3498 -0.5261
H -8.3264  2.9923 -0.5198
H -9.6705  1.7405 -0.5148
C -7.3079 -1.4448 -0.5358
O -6.5649 -1.3948  0.4949
O -6.5110 -1.4016 -1.7244
O -8.0387 -2.6727 -0.5177
O -7.9849  2.5724  3.1403
C -8.5048  1.2089  2.7933
O -8.9927 -0.1678  2.4517
H -6.1930 -3.7191 -3.1871
O -7.0837 -3.5562 -2.7881
H -7.6194 -4.3876 -2.8252
