11
Molecule 1  0.000000
C -8.5908  1.6990  0.3235
C -7.4570  1.0623  0.0378
C -6.1862  1.7857  0.0580
O -5.0023  1.1189 -0.2413
O -6.1634  2.9888  0.3406
O -7.4807 -0.2917 -0.2802
H -8.5731  2.7317  0.5661
H -9.5126  1.1733  0.3085
O -7.8929  2.5633  2.9992
C -8.5046  1.2093  2.7935
O -9.0849 -0.1593  2.5927
